*Heading
** Job name: 800C_1s-1_setup Model name: 800C_1s-1_step_19
** Generated by: Abaqus/CAE 2022
*Preprint, echo=NO, model=NO, history=NO, contact=NO
**
** PARTS
**
*Part, name=PART-4-1
*End Part
**  
*Part, name=PART-4-2
*End Part
**  
*Part, name=PART-5
*Node
      1, 0.00650000013,           0.
      2,           0.,           0.
      3, 0.00650000013, 0.0350000001
      4,           0., 0.0350000001
      5, 0.00600000005,           0.
      6, 0.00549999997,           0.
      7, 0.00499999989,           0.
      8, 0.00449999981,           0.
      9, 0.00400000019,           0.
     10, 0.00350000011,           0.
     11, 0.00300000003,           0.
     12, 0.00249999994,           0.
     13, 0.00200000009,           0.
     14, 0.00150000001,           0.
     15, 0.00100000005,           0.
     16, 0.000500000024,           0.
     17, 0.00650000013, 0.0319383368
     18, 0.00650000013, 0.0291063841
     19, 0.00650000013, 0.0264869072
     20, 0.00650000013, 0.0240639634
** ... 188 like lines cut
*Element, type=CAX3T
1, 133, 132, 131
2, 162, 100, 136
3, 191, 164, 185
*Element, type=CAX4T
  4,  16,  15, 200, 201
  5,  22, 136, 100,  23
  6,   5,   1,  40,  73
  7, 142,  73, 110, 144
  8,   9,   8,  69, 101
  9,  68,  69,   8,   7
 10,  10,   9, 101,  66
 11,  45, 109, 112,  46
 12,  66,  67,  11,  10
 13,  12,  11,  67,  70
 14,  13,  12,  70,  71
 15,  15,  14, 199, 200
 16,  17,   3,  41, 198
 17,  17, 198, 196,  18
 18,  18, 196, 195,  19
 19, 194, 192, 195, 196
 20, 192, 204, 193, 195
 21, 162, 136, 181, 182
 22,  24,  98,  96,  25
 23,  25,  96,  94,  26
** ... 152 like lines cut
*Nset, nset=PART-5-REFPT_, internal
 208,
*Nset, nset=_PICKEDSET6, internal, generate
   1,  207,    1
*Elset, elset=_PICKEDSET6, internal, generate
   1,  175,    1
** Section: Section-1-_PICKEDSET6
*Solid Section, elset=_PICKEDSET6, material=AL2O3
,
*End Part
**  
*Part, name=PART-6
*Node
      1, 0.00650000013,           0.
      2,           0.,           0.
      3, 0.00650000013, 0.0350000001
      4,           0., 0.0350000001
      5, 0.00325000007,           0.
      6, 0.00650000013, 0.0345289744
      7, 0.00650000013, 0.0340197422
      8, 0.00650000013, 0.0334692039
      9, 0.00650000013, 0.0328740105
     10, 0.00650000013, 0.0322305411
     11, 0.00650000013, 0.0315348729
     12, 0.00650000013, 0.0307827797
     13, 0.00650000013, 0.0299696792
     14, 0.00650000013, 0.0290906262
     15, 0.00650000013, 0.0281402692
     16, 0.00650000013, 0.0271128267
     17, 0.00650000013,  0.026002042
     18, 0.00650000013, 0.0248011593
     19, 0.00650000013, 0.0235028677
     20, 0.00650000013, 0.0220992677
** ... 194 like lines cut
*Element, type=CAX3T
1, 192, 190, 191
2, 208, 174, 171
3, 196, 194, 195
*Element, type=CAX4T
  4,  99, 100,  22,  21
  5,   1,  29, 200,   5
  6,   6,   3,  41,  69
  7,  69,  71,   7,   6
  8, 112, 201, 149, 148
  9, 106, 107, 144, 142
 10,   9,   8,  72,  75
 11, 114,  75,  72, 110
 12,  11,  10,  77,  78
 13,  12,  11,  78,  80
 14,  13,  12,  80,  82
 15,  14,  13,  82,  85
 16,  15,  14,  85,  86
 17,  16,  15,  86,  89
 18, 129, 127,  88,  90
 19,  91,  92,  18,  17
 20,  92,  95,  19,  18
 21,  95,  97,  20,  19
 22,  97,  99,  21,  20
 23, 100, 102,  23,  22
** ... 158 like lines cut
*Nset, nset=PART-6-REFPT_, internal
 214,
*Nset, nset=_PICKEDSET8, internal, generate
   1,  213,    1
*Elset, elset=_PICKEDSET8, internal, generate
   1,  181,    1
** Section: Section-2-_PICKEDSET8
*Solid Section, elset=_PICKEDSET8, material=AL2O3
,
*End Part
**  
*Part, name=PART-7
*Node
      1, 0.00650000013,           0.
      2,  0.009333333,           0.
      3, 0.0121666668,           0.
      4, 0.0149999997,           0.
      5, 0.00650000013, 0.00249999994
      6,  0.009333333, 0.00249999994
      7, 0.0121666668, 0.00249999994
      8, 0.0149999997, 0.00249999994
      9, 0.00650000013, 0.00499999989
     10,  0.009333333, 0.00499999989
     11, 0.0121666668, 0.00499999989
     12, 0.0149999997, 0.00499999989
     13, 0.00650000013, 0.00749999983
     14,  0.009333333, 0.00749999983
     15, 0.0121666668, 0.00749999983
     16, 0.0149999997, 0.00749999983
     17, 0.00650000013, 0.00999999978
     18,  0.009333333, 0.00999999978
     19, 0.0121666668, 0.00999999978
     20, 0.0149999997, 0.00999999978
*Element, type=CAX4T
 1,  1,  2,  6,  5
 2,  2,  3,  7,  6
 3,  3,  4,  8,  7
 4,  5,  6, 10,  9
 5,  6,  7, 11, 10
 6,  7,  8, 12, 11
 7,  9, 10, 14, 13
 8, 10, 11, 15, 14
 9, 11, 12, 16, 15
10, 13, 14, 18, 17
11, 14, 15, 19, 18
12, 15, 16, 20, 19
*Nset, nset=_PICKEDSET4, internal, generate
  1,  20,   1
*Elset, elset=_PICKEDSET4, internal, generate
  1,  12,   1
** Section: Section-3-_PICKEDSET4
*Solid Section, elset=_PICKEDSET4, material=H13
,
*End Part
**  
*Part, name=PART-8
*Node
      1,           0.,  0.145249993
      2,           0., 0.00274999999
      3, 0.0149999997, 0.00274999999
      4, 0.0149999997, 0.0152500002
      5, 0.00499999989, 0.0152500002
      6, 0.00499999989, 0.0252500009
      7, 0.0125000002, 0.0252500009
      8, 0.0125000002, 0.0452499986
      9, 0.0500000007, 0.0452499986
     10, 0.0500000007,  0.145249993
     11,           0.,  0.135479078
     12,           0.,  0.126281306
     13,           0.,  0.117623061
     14,           0.,  0.109472707
     15,           0.,  0.101800442
     16,           0., 0.0945782289
     17,           0., 0.0877796561
     18,           0., 0.0813798904
     19,           0., 0.0753555223
     20,           0., 0.0696845427
** ... 207 like lines cut
*Element, type=CAX3T
1, 140, 222, 155
2, 199, 183, 178
3, 227, 147, 145
*Element, type=CAX4T
  4,  96,  56,   5, 126
  5, 109, 114,  61,  62
  6, 163, 161, 170, 171
  7, 171, 178, 164, 163
  8, 188,  85,  84, 186
  9,  12, 184, 185,  11
 10, 136, 137, 141, 220
 11, 161,  17,  18, 160
 12, 170, 168, 174, 176
 13,  20, 166, 167,  19
 14, 165,  21,  22, 162
 15,  74,  75, 192, 193
 16, 159, 219, 169, 177
 17, 222, 140, 219, 159
 18, 155, 121, 120, 143
 19, 121, 158,  23,  24
 20,  25, 120, 121,  24
 21,  26, 119, 120,  25
 22,  67, 108, 111,  66
 23, 110,  64,  65, 112
** ... 162 like lines cut
*Nset, nset=_PICKEDSET21, internal, generate
   1,  227,    1
*Elset, elset=_PICKEDSET21, internal, generate
   1,  185,    1
** Section: Section-4-_PICKEDSET21
*Solid Section, elset=_PICKEDSET21, material=H13
,
*End Part
**  
*Part, name=PART-9
*Node
      1, 0.00650000013, -0.00675000018
      2, 0.0092000002, -0.00675000018
      3, 0.0119000003, -0.00675000018
      4, 0.0146000003, -0.00675000018
      5, 0.0173000004, -0.00675000018
      6, 0.0199999996, -0.00675000018
      7, 0.00650000013, -0.00408333354
      8, 0.0092000002, -0.00408333354
      9, 0.0119000003, -0.00408333354
     10, 0.0146000003, -0.00408333354
     11, 0.0173000004, -0.00408333354
     12, 0.0199999996, -0.00408333354
     13, 0.00650000013, -0.00141666667
     14, 0.0092000002, -0.00141666667
     15, 0.0119000003, -0.00141666667
     16, 0.0146000003, -0.00141666667
     17, 0.0173000004, -0.00141666667
     18, 0.0199999996, -0.00141666667
     19, 0.00650000013, 0.00124999997
     20, 0.0092000002, 0.00124999997
** ... 4 like lines cut
*Element, type=CAX4T
 1,  1,  2,  8,  7
 2,  2,  3,  9,  8
 3,  3,  4, 10,  9
 4,  4,  5, 11, 10
 5,  5,  6, 12, 11
 6,  7,  8, 14, 13
 7,  8,  9, 15, 14
 8,  9, 10, 16, 15
 9, 10, 11, 17, 16
10, 11, 12, 18, 17
11, 13, 14, 20, 19
12, 14, 15, 21, 20
13, 15, 16, 22, 21
14, 16, 17, 23, 22
15, 17, 18, 24, 23
*Nset, nset=_PICKEDSET3, internal, generate
  1,  24,   1
*Elset, elset=_PICKEDSET3, internal, generate
  1,  15,   1
** Section: Section-5-_PICKEDSET3
*Solid Section, elset=_PICKEDSET3, material=H13
,
*End Part
**  
*Part, name=PART-10
*Node
      1,  0.100000001,           0.
      2,           0.,           0.
      3,  0.100000001, 0.0399999991
      4,           0., 0.0399999991
      5, 0.0900000036,           0.
      6, 0.0799999982,           0.
      7, 0.0700000003,           0.
      8, 0.0599999987,           0.
      9, 0.0500000007,           0.
     10, 0.0399999991,           0.
     11, 0.0299999993,           0.
     12, 0.0199999996,           0.
     13, 0.00999999978,           0.
     14,  0.100000001, 0.0299999993
     15,  0.100000001, 0.0199999996
     16,  0.100000001, 0.00999999978
     17, 0.00249999994, 0.0399999991
     18, 0.00521685509, 0.0399999991
     19, 0.00816937629, 0.0399999991
     20, 0.0113780051, 0.0399999991
** ... 87 like lines cut
*Element, type=CAX3T
1,  71,  72, 107
2,  63,  99,  65
3, 106,  55,  64
4,  72,  61, 107
*Element, type=CAX4T
 5,  72,  76,  84,  99
 6,  74,  82,  66, 103
 7,   5,   1,  16,  87
 8,  15,  86,  87,  16
 9,  78,  80,  94,  81
10,  75,  79,  77,  70
11, 104,  66,  82,  96
12,  44,  43,  54,  56
13,  60,  59,  55, 106
14,  41,  52,  62,  53
15,   3,  33, 102,  14
16,  33,  32,  83, 102
17,  83,  81,  94,  95
18,  17,   4,  40,  48
19,  49,  48,  51,  59
20,  48,  49,  18,  17
21,  49,  50,  19,  18
22,  50,  52,  20,  19
23,  41,  43,  22,  21
24,  23,  22,  43,  44
** ... 64 like lines cut
*Nset, nset=_PICKEDSET23, internal, generate
   1,  107,    1
*Elset, elset=_PICKEDSET23, internal, generate
  1,  88,   1
** Section: Section-6-_PICKEDSET23
*Solid Section, elset=_PICKEDSET23, material=H13
,
*End Part
**  
*Part, name=SAMPLE
*Node
      1,           0.,           0.
      2, 0.000250000012,           0.
      3, 0.000500000024,           0.
      4, 0.000750000007,           0.
      5, 0.00100000005,           0.
      6, 0.00124999997,           0.
      7, 0.00150000001,           0.
      8, 0.00175000005,           0.
      9, 0.00200000009,           0.
     10, 0.0022499999,           0.
     11, 0.00249999994,           0.
     12,           0., 0.000250000012
     13, 0.000250000012, 0.000250000012
     14, 0.000500000024, 0.000250000012
     15, 0.000750000007, 0.000250000012
     16, 0.00100000005, 0.000250000012
     17, 0.00124999997, 0.000250000012
     18, 0.00150000001, 0.000250000012
     19, 0.00175000005, 0.000250000012
     20, 0.00200000009, 0.000250000012
** ... 431 like lines cut
*Element, type=CAX4RT
  1,   1,   2,  13,  12
  2,   2,   3,  14,  13
  3,   3,   4,  15,  14
  4,   4,   5,  16,  15
  5,   5,   6,  17,  16
  6,   6,   7,  18,  17
  7,   7,   8,  19,  18
  8,   8,   9,  20,  19
  9,   9,  10,  21,  20
 10,  10,  11,  22,  21
 11,  12,  13,  24,  23
 12,  13,  14,  25,  24
 13,  14,  15,  26,  25
 14,  15,  16,  27,  26
 15,  16,  17,  28,  27
 16,  17,  18,  29,  28
 17,  18,  19,  30,  29
 18,  19,  20,  31,  30
 19,  20,  21,  32,  31
 20,  21,  22,  33,  32
** ... 380 like lines cut
*Nset, nset=_PICKEDSET2, internal, generate
   1,  451,    1
*Elset, elset=_PICKEDSET2, internal, generate
   1,  400,    1
** Section: Section-7-_PICKEDSET2
*Solid Section, elset=_PICKEDSET2, controls=EC-1, material=MATERIAL
,
*End Part
**  
**
** ASSEMBLY
**
*Assembly, name=Assembly
**  
*Instance, name=SAMPLE, part=SAMPLE
*End Instance
**  
*Instance, name=PART-4-1, part=PART-4-1
*Node
      1,           0.,           0.
*Nset, nset=PART-4-1-RefPt_, internal
 1,
*Nset, nset=PART-4-1-REFPT_, internal
 1,
*Surface, type=SEGMENTS, name=PART-4-1-RIGIDSURFACE_, internal
START,           0.,           0.
 LINE,        0.005,           0.
*End Instance
**  
*Instance, name=PART-4-2, part=PART-4-2
          0.,         0.01,           0.
*Node
      1,           0.,           0.
*Nset, nset=PART-4-2-RefPt_, internal
 1,
*Nset, nset=PART-4-2-REFPT_, internal
 1,
*Surface, type=SEGMENTS, name=PART-4-2-RIGIDSURFACE_, internal
START,        0.005,           0.
 LINE,           0.,           0.
*End Instance
**  
*Instance, name=PART-6-2, part=PART-6
          0.,       -0.035,           0.
*End Instance
**  
*Instance, name=PART-5-2, part=PART-5
          0.,         0.01,           0.
*End Instance
**  
*Instance, name=PART-7-1, part=PART-7
          0.,        0.035,           0.
*End Instance
**  
*Instance, name=PART-8-1, part=PART-8
          0.,      0.04225,           0.
*End Instance
**  
*Instance, name=PART-9-1, part=PART-9
          0.,     -0.02825,           0.
*End Instance
**  
*Instance, name=PART-10-1, part=PART-10
          0.,       -0.075,           0.
*End Instance
**  
*Nset, nset=CENTRAL_THERMOCOUPLE, instance=SAMPLE
 231,
*Nset, nset=MACHINE_BOTTOM, instance=PART-4-1
 1,
*Nset, nset=MACHINE_BOTTOM, instance=PART-6-2, generate
   1,  213,    1
*Nset, nset=MACHINE_BOTTOM, instance=PART-9-1, generate
  1,  24,   1
*Nset, nset=MACHINE_BOTTOM, instance=PART-10-1, generate
   1,  107,    1
*Elset, elset=MACHINE_BOTTOM, instance=PART-6-2, generate
   1,  181,    1
*Elset, elset=MACHINE_BOTTOM, instance=PART-9-1, generate
  1,  15,   1
*Elset, elset=MACHINE_BOTTOM, instance=PART-10-1, generate
  1,  88,   1
*Nset, nset=MACHINE_TOP, instance=PART-4-2
 1,
*Nset, nset=MACHINE_TOP, instance=PART-5-2, generate
   1,  207,    1
*Nset, nset=MACHINE_TOP, instance=PART-7-1, generate
  1,  20,   1
*Nset, nset=MACHINE_TOP, instance=PART-8-1, generate
   1,  227,    1
*Elset, elset=MACHINE_TOP, instance=PART-5-2, generate
   1,  175,    1
*Elset, elset=MACHINE_TOP, instance=PART-7-1, generate
  1,  12,   1
*Elset, elset=MACHINE_TOP, instance=PART-8-1, generate
   1,  185,    1
*Nset, nset=OFF_CENTRE_THERMOCOUPLE, instance=SAMPLE
 407,
*Nset, nset=PLATEN_REFERENCE_POINT, instance=PART-4-2
 1,
*Nset, nset=SAMPLE_MIDLINE, instance=SAMPLE, generate
   1,  441,   11
*Elset, elset=SAMPLE_MIDLINE, instance=SAMPLE, generate
   1,  391,   10
*Nset, nset=SAMPLE_MIDPOINT, instance=SAMPLE
 221,
*Nset, nset=SAMPLE_TOP, instance=SAMPLE, generate
 441,  451,    1
*Elset, elset=SAMPLE_TOP, instance=SAMPLE, generate
 391,  400,    1
*Nset, nset=SET-12, instance=SAMPLE, generate
   1,  451,    1
*Nset, nset=SET-12, instance=PART-6-2, generate
   1,  213,    1
*Nset, nset=SET-12, instance=PART-7-1, generate
  1,  20,   1
*Nset, nset=SET-12, instance=PART-9-1, generate
  1,  24,   1
*Nset, nset=SET-12, instance=PART-5-2, generate
   1,  207,    1
*Nset, nset=SET-12, instance=PART-10-1, generate
   1,  107,    1
*Nset, nset=SET-12, instance=PART-8-1, generate
   1,  227,    1
*Elset, elset=SET-12, instance=SAMPLE, generate
   1,  400,    1
*Elset, elset=SET-12, instance=PART-6-2, generate
   1,  181,    1
*Elset, elset=SET-12, instance=PART-7-1, generate
  1,  12,   1
*Elset, elset=SET-12, instance=PART-9-1, generate
  1,  15,   1
*Elset, elset=SET-12, instance=PART-5-2, generate
   1,  175,    1
*Elset, elset=SET-12, instance=PART-10-1, generate
  1,  88,   1
*Elset, elset=SET-12, instance=PART-8-1, generate
   1,  185,    1
*Nset, nset=Set-49, instance=SAMPLE, generate
   1,  451,    1
*Nset, nset=Set-49, instance=PART-4-2
 1,
*Nset, nset=Set-49, instance=PART-4-1
 1,
*Nset, nset=Set-49, instance=PART-6-2, generate
   1,  214,    1
*Nset, nset=Set-49, instance=PART-9-1, generate
  1,  24,   1
*Nset, nset=Set-49, instance=PART-7-1, generate
  1,  20,   1
*Nset, nset=Set-49, instance=PART-5-2, generate
   1,  208,    1
*Nset, nset=Set-49, instance=PART-10-1, generate
   1,  107,    1
*Nset, nset=Set-49, instance=PART-8-1, generate
   1,  227,    1
*Nset, nset=VOLUME, instance=SAMPLE, generate
   1,  451,    1
*Elset, elset=VOLUME, instance=SAMPLE, generate
   1,  400,    1
*Nset, nset=_PICKEDSET108, internal, instance=SAMPLE, generate
   1,  451,    1
*Nset, nset=_PICKEDSET108, internal, instance=PART-6-2, generate
   1,  213,    1
*Nset, nset=_PICKEDSET108, internal, instance=PART-7-1, generate
  1,  20,   1
*Nset, nset=_PICKEDSET108, internal, instance=PART-9-1, generate
  1,  24,   1
*Nset, nset=_PICKEDSET108, internal, instance=PART-5-2, generate
   1,  207,    1
*Nset, nset=_PICKEDSET108, internal, instance=PART-10-1, generate
   1,  107,    1
*Nset, nset=_PICKEDSET108, internal, instance=PART-8-1, generate
   1,  227,    1
*Elset, elset=_PICKEDSET108, internal, instance=SAMPLE, generate
   1,  400,    1
*Elset, elset=_PICKEDSET108, internal, instance=PART-6-2, generate
   1,  181,    1
*Elset, elset=_PICKEDSET108, internal, instance=PART-7-1, generate
  1,  12,   1
*Elset, elset=_PICKEDSET108, internal, instance=PART-9-1, generate
  1,  15,   1
*Elset, elset=_PICKEDSET108, internal, instance=PART-5-2, generate
   1,  175,    1
*Elset, elset=_PICKEDSET108, internal, instance=PART-10-1, generate
  1,  88,   1
*Elset, elset=_PICKEDSET108, internal, instance=PART-8-1, generate
   1,  185,    1
*Nset, nset=_PICKEDSET111, internal, instance=SAMPLE, generate
   1,  451,    1
*Nset, nset=_PICKEDSET111, internal, instance=PART-6-2, generate
   1,  213,    1
*Nset, nset=_PICKEDSET111, internal, instance=PART-7-1, generate
  1,  20,   1
*Nset, nset=_PICKEDSET111, internal, instance=PART-9-1, generate
  1,  24,   1
*Nset, nset=_PICKEDSET111, internal, instance=PART-5-2, generate
   1,  207,    1
*Nset, nset=_PICKEDSET111, internal, instance=PART-8-1, generate
   1,  227,    1
*Elset, elset=_PICKEDSET111, internal, instance=SAMPLE, generate
   1,  400,    1
*Elset, elset=_PICKEDSET111, internal, instance=PART-6-2, generate
   1,  181,    1
*Elset, elset=_PICKEDSET111, internal, instance=PART-7-1, generate
  1,  12,   1
*Elset, elset=_PICKEDSET111, internal, instance=PART-9-1, generate
  1,  15,   1
*Elset, elset=_PICKEDSET111, internal, instance=PART-5-2, generate
   1,  175,    1
*Elset, elset=_PICKEDSET111, internal, instance=PART-8-1, generate
   1,  185,    1
*Elset, elset=_SAMPLE_SURFACE_S2, internal, instance=SAMPLE, generate
  10,  400,   10
*Elset, elset=__PICKEDSURF36_S3, internal, instance=SAMPLE, generate
 391,  400,    1
*Elset, elset=__PICKEDSURF38_S1, internal, instance=SAMPLE, generate
  1,  10,   1
*Elset, elset=__PICKEDSURF40_S2, internal, instance=SAMPLE, generate
  10,  400,   10
*Elset, elset=__PICKEDSURF42_S2, internal, instance=SAMPLE, generate
  10,  400,   10
*Elset, elset=__PICKEDSURF78_S1, internal, instance=PART-5-2
  4,  6,  8, 10, 13, 14, 15, 39, 63
*Elset, elset=__PICKEDSURF78_S3, internal, instance=PART-5-2
  9, 12, 33, 34
*Elset, elset=__PICKEDSURF79_S3, internal, instance=SAMPLE, generate
 391,  400,    1
*Elset, elset=__PICKEDSURF80_S1, internal, instance=PART-6-2
 37,
*Elset, elset=__PICKEDSURF80_S2, internal, instance=PART-6-2
   6,  33,  35,  60,  99, 101
*Elset, elset=__PICKEDSURF80_S3, internal, instance=PART-6-2
 29,
*Elset, elset=__PICKEDSURF80_S4, internal, instance=PART-6-2
  34,  63,  64,  65, 106
*Elset, elset=__PICKEDSURF81_S1, internal, instance=SAMPLE, generate
  1,  10,   1
*Elset, elset=__PICKEDSURF94_S4, internal, instance=PART-7-1, generate
  1,  10,   3
*Elset, elset=__PICKEDSURF95_S1, internal, instance=PART-5-2
 16,
*Elset, elset=__PICKEDSURF95_S2, internal, instance=PART-5-2
  6, 36, 37, 61, 70, 75, 90
*Elset, elset=__PICKEDSURF95_S4, internal, instance=PART-5-2
  5, 17, 18, 22, 23, 24, 25, 26, 28, 29, 30, 32, 54, 55, 56, 60
 65,
*Elset, elset=__PICKEDSURF96_S2, internal, instance=PART-5-2
 16,
*Elset, elset=__PICKEDSURF96_S3, internal, instance=PART-5-2
 38,
*Elset, elset=__PICKEDSURF96_S3, internal, instance=PART-7-1, generate
 10,  12,   1
*Elset, elset=__PICKEDSURF97_S1, internal, instance=PART-8-1
 34, 41, 87
*Elset, elset=__PICKEDSURF97_S2, internal, instance=PART-8-1
 37,
*Elset, elset=__PICKEDSURF97_S4, internal, instance=PART-8-1
 35, 40, 82
*Elset, elset=__PICKEDSURF98_S4, internal, instance=PART-9-1, generate
  1,  11,   5
*Elset, elset=__PICKEDSURF99_S1, internal, instance=PART-6-2
  5,  6, 10, 12, 13, 14, 15, 16, 17, 59, 62, 97
*Elset, elset=__PICKEDSURF99_S2, internal, instance=PART-6-2
 179,
*Elset, elset=__PICKEDSURF99_S3, internal, instance=PART-6-2
   4,   7,  19,  20,  21,  22,  23,  50, 172, 177
*Elset, elset=__PICKEDSURF99_S4, internal, instance=PART-6-2
 173, 180
*Elset, elset=__PICKEDSURF100_S1, internal, instance=PART-9-1, generate
 1,  5,  1
*Elset, elset=__PICKEDSURF100_S2, internal, instance=PART-6-2
 38,
*Elset, elset=__PICKEDSURF100_S4, internal, instance=PART-6-2
 5,
*Elset, elset=__PICKEDSURF101_S1, internal, instance=PART-10-1
 15, 16, 18, 24, 25, 26, 27, 29, 30, 46
*Elset, elset=__PICKEDSURF101_S3, internal, instance=PART-10-1
 20, 21, 22, 23, 31, 32, 33, 61
*Elset, elset=__PICKEDSURF112_S1, internal, instance=PART-6-2
  5,  6, 10, 12, 13, 14, 15, 16, 17, 37, 59, 62, 97
*Elset, elset=__PICKEDSURF112_S1, internal, instance=PART-7-1, generate
 1,  3,  1
*Elset, elset=__PICKEDSURF112_S1, internal, instance=PART-5-2
  4,  6,  8, 10, 13, 14, 15, 16, 39, 63
*Elset, elset=__PICKEDSURF112_S1, internal, instance=PART-10-1
  7, 15, 16, 18, 24, 25, 26, 27, 29, 30, 34, 46
*Elset, elset=__PICKEDSURF112_S1, internal, instance=PART-8-1
  15,  30,  46,  60,  68,  69, 100
*Elset, elset=__PICKEDSURF112_S2, internal, instance=SAMPLE, generate
  10,  400,   10
*Elset, elset=__PICKEDSURF112_S2, internal, instance=PART-6-2
   6,  33,  35,  60,  99, 101, 179
*Elset, elset=__PICKEDSURF112_S2, internal, instance=PART-7-1, generate
  3,  12,   3
*Elset, elset=__PICKEDSURF112_S2, internal, instance=PART-9-1, generate
  5,  15,   5
*Elset, elset=__PICKEDSURF112_S2, internal, instance=PART-5-2
  6, 36, 37, 61, 70, 75, 90
*Elset, elset=__PICKEDSURF112_S2, internal, instance=PART-10-1
  7, 70, 73, 76
*Elset, elset=__PICKEDSURF112_S2, internal, instance=PART-8-1
   4,   8,  23,  24,  39,  41,  46,  47,  51,  54,  57,  60,  68,  78,  79,  94
 118, 131
*Elset, elset=__PICKEDSURF112_S3, internal, instance=PART-6-2
   4,   7,  19,  20,  21,  22,  23,  29,  50, 172, 177
*Elset, elset=__PICKEDSURF112_S3, internal, instance=PART-9-1, generate
 11,  15,   1
*Elset, elset=__PICKEDSURF112_S3, internal, instance=PART-5-2
  9, 12, 33, 34
*Elset, elset=__PICKEDSURF112_S3, internal, instance=PART-10-1
 20, 21, 22, 23, 31, 32, 33, 61, 81
*Elset, elset=__PICKEDSURF112_S3, internal, instance=PART-8-1
   5,  52, 136, 149, 152, 157, 158, 160, 165
*Elset, elset=__PICKEDSURF112_S4, internal, instance=PART-6-2
  34,  63,  64,  65, 106, 173, 180
*Elset, elset=__PICKEDSURF112_S4, internal, instance=PART-5-2
  5, 17, 18, 22, 23, 24, 25, 26, 28, 29, 30, 32, 54, 55, 56, 60
 65,
*Elset, elset=__PICKEDSURF112_S4, internal, instance=PART-10-1
  8, 15, 65, 68, 69, 75, 77
*Elset, elset=__PICKEDSURF112_S4, internal, instance=PART-8-1
  22,  28,  38,  44,  45,  52,  56,  72,  77, 142, 145, 162
*Surface, type=ELEMENT, name=SAMPLE_SURFACE
_SAMPLE_SURFACE_S2, S2
*Surface, type=ELEMENT, name=_PICKEDSURF36, internal
__PICKEDSURF36_S3, S3
*Surface, type=ELEMENT, name=_PICKEDSURF38, internal
__PICKEDSURF38_S1, S1
*Surface, type=ELEMENT, name=_PICKEDSURF40, internal
__PICKEDSURF40_S2, S2
*Surface, type=ELEMENT, name=_PICKEDSURF42, internal
__PICKEDSURF42_S2, S2
*Elset, elset=__PICKEDSURF78_S1_1, internal, instance=PART-5-2
  4,  6,  8, 10, 13, 14, 15, 39, 63
*Elset, elset=__PICKEDSURF78_S3_1, internal, instance=PART-5-2
  9, 12, 33, 34
*Surface, type=ELEMENT, name=_PICKEDSURF78, internal
__PICKEDSURF78_S1_1, S1
__PICKEDSURF78_S3_1, S3
*Surface, type=ELEMENT, name=_PICKEDSURF79, internal
__PICKEDSURF79_S3, S3
*Elset, elset=__PICKEDSURF80_S2_1, internal, instance=PART-6-2
   6,  33,  35,  60,  99, 101
*Elset, elset=__PICKEDSURF80_S3_1, internal, instance=PART-6-2
 29,
*Elset, elset=__PICKEDSURF80_S4_1, internal, instance=PART-6-2
  34,  63,  64,  65, 106
*Elset, elset=__PICKEDSURF80_S1_1, internal, instance=PART-6-2
 37,
*Surface, type=ELEMENT, name=_PICKEDSURF80, internal
__PICKEDSURF80_S2_1, S2
__PICKEDSURF80_S3_1, S3
__PICKEDSURF80_S4_1, S4
__PICKEDSURF80_S1_1, S1
*Surface, type=ELEMENT, name=_PICKEDSURF81, internal
__PICKEDSURF81_S1, S1
*Surface, type=ELEMENT, name=_PICKEDSURF94, internal
__PICKEDSURF94_S4, S4
*Elset, elset=__PICKEDSURF95_S4_1, internal, instance=PART-5-2
  5, 17, 18, 22, 23, 24, 25, 26, 28, 29, 30, 32, 54, 55, 56, 60
 65,
*Elset, elset=__PICKEDSURF95_S2_1, internal, instance=PART-5-2
  6, 36, 37, 61, 70, 75, 90
*Elset, elset=__PICKEDSURF95_S1_1, internal, instance=PART-5-2
 16,
*Surface, type=ELEMENT, name=_PICKEDSURF95, internal
__PICKEDSURF95_S4_1, S4
__PICKEDSURF95_S2_1, S2
__PICKEDSURF95_S1_1, S1
*Elset, elset=__PICKEDSURF96_S2_1, internal, instance=PART-5-2
 16,
*Elset, elset=__PICKEDSURF96_S3_1, internal, instance=PART-5-2
 38,
*Elset, elset=__PICKEDSURF96_S3_1, internal, instance=PART-7-1, generate
 10,  12,   1
*Surface, type=ELEMENT, name=_PICKEDSURF96, internal
__PICKEDSURF96_S2_1, S2
__PICKEDSURF96_S3_1, S3
*Elset, elset=__PICKEDSURF97_S1_1, internal, instance=PART-8-1
 34, 41, 87
*Elset, elset=__PICKEDSURF97_S4_1, internal, instance=PART-8-1
 35, 40, 82
*Elset, elset=__PICKEDSURF97_S2_1, internal, instance=PART-8-1
 37,
*Surface, type=ELEMENT, name=_PICKEDSURF97, internal
__PICKEDSURF97_S1_1, S1
__PICKEDSURF97_S4_1, S4
__PICKEDSURF97_S2_1, S2
*Surface, type=ELEMENT, name=_PICKEDSURF98, internal
__PICKEDSURF98_S4, S4
*Elset, elset=__PICKEDSURF99_S3_1, internal, instance=PART-6-2
   4,   7,  19,  20,  21,  22,  23,  50, 172, 177
*Elset, elset=__PICKEDSURF99_S1_1, internal, instance=PART-6-2
  5,  6, 10, 12, 13, 14, 15, 16, 17, 59, 62, 97
*Elset, elset=__PICKEDSURF99_S4_1, internal, instance=PART-6-2
 173, 180
*Elset, elset=__PICKEDSURF99_S2_1, internal, instance=PART-6-2
 179,
*Surface, type=ELEMENT, name=_PICKEDSURF99, internal
__PICKEDSURF99_S3_1, S3
__PICKEDSURF99_S1_1, S1
__PICKEDSURF99_S4_1, S4
__PICKEDSURF99_S2_1, S2
*Elset, elset=__PICKEDSURF100_S4_1, internal, instance=PART-6-2
 5,
*Elset, elset=__PICKEDSURF100_S2_1, internal, instance=PART-6-2
 38,
*Surface, type=ELEMENT, name=_PICKEDSURF100, internal
__PICKEDSURF100_S4_1, S4
__PICKEDSURF100_S2_1, S2
__PICKEDSURF100_S1, S1
*Elset, elset=__PICKEDSURF101_S1_1, internal, instance=PART-10-1
 15, 16, 18, 24, 25, 26, 27, 29, 30, 46
*Elset, elset=__PICKEDSURF101_S3_1, internal, instance=PART-10-1
 20, 21, 22, 23, 31, 32, 33, 61
*Surface, type=ELEMENT, name=_PICKEDSURF101, internal
__PICKEDSURF101_S1_1, S1
__PICKEDSURF101_S3_1, S3
*Elset, elset=__PICKEDSURF112_S2_1, internal, instance=PART-10-1
  7, 70, 73, 76
*Elset, elset=__PICKEDSURF112_S2_1, internal, instance=PART-5-2
  6, 36, 37, 61, 70, 75, 90
*Elset, elset=__PICKEDSURF112_S2_1, internal, instance=PART-6-2
   6,  33,  35,  60,  99, 101, 179
*Elset, elset=__PICKEDSURF112_S2_1, internal, instance=PART-9-1, generate
  5,  15,   5
*Elset, elset=__PICKEDSURF112_S2_1, internal, instance=SAMPLE, generate
  10,  400,   10
*Elset, elset=__PICKEDSURF112_S2_1, internal, instance=PART-7-1, generate
  3,  12,   3
*Elset, elset=__PICKEDSURF112_S2_1, internal, instance=PART-8-1
   4,   8,  23,  24,  39,  41,  46,  47,  51,  54,  57,  60,  68,  78,  79,  94
 118, 131
*Elset, elset=__PICKEDSURF112_S3_1, internal, instance=PART-10-1
 20, 21, 22, 23, 31, 32, 33, 61, 81
*Elset, elset=__PICKEDSURF112_S3_1, internal, instance=PART-5-2
  9, 12, 33, 34
*Elset, elset=__PICKEDSURF112_S3_1, internal, instance=PART-6-2
   4,   7,  19,  20,  21,  22,  23,  29,  50, 172, 177
*Elset, elset=__PICKEDSURF112_S3_1, internal, instance=PART-9-1, generate
 11,  15,   1
*Elset, elset=__PICKEDSURF112_S3_1, internal, instance=PART-8-1
   5,  52, 136, 149, 152, 157, 158, 160, 165
*Elset, elset=__PICKEDSURF112_S4_1, internal, instance=PART-10-1
  8, 15, 65, 68, 69, 75, 77
*Elset, elset=__PICKEDSURF112_S4_1, internal, instance=PART-5-2
  5, 17, 18, 22, 23, 24, 25, 26, 28, 29, 30, 32, 54, 55, 56, 60
 65,
*Elset, elset=__PICKEDSURF112_S4_1, internal, instance=PART-6-2
  34,  63,  64,  65, 106, 173, 180
*Elset, elset=__PICKEDSURF112_S4_1, internal, instance=PART-8-1
  22,  28,  38,  44,  45,  52,  56,  72,  77, 142, 145, 162
*Elset, elset=__PICKEDSURF112_S1_1, internal, instance=PART-10-1
  7, 15, 16, 18, 24, 25, 26, 27, 29, 30, 34, 46
*Elset, elset=__PICKEDSURF112_S1_1, internal, instance=PART-5-2
  4,  6,  8, 10, 13, 14, 15, 16, 39, 63
*Elset, elset=__PICKEDSURF112_S1_1, internal, instance=PART-6-2
  5,  6, 10, 12, 13, 14, 15, 16, 17, 37, 59, 62, 97
*Elset, elset=__PICKEDSURF112_S1_1, internal, instance=PART-7-1, generate
 1,  3,  1
*Elset, elset=__PICKEDSURF112_S1_1, internal, instance=PART-8-1
  15,  30,  46,  60,  68,  69, 100
*Surface, type=ELEMENT, name=_PICKEDSURF112, internal
__PICKEDSURF112_S2_1, S2
__PICKEDSURF112_S3_1, S3
__PICKEDSURF112_S4_1, S4
__PICKEDSURF112_S1_1, S1
** Constraint: RigidBody-1
*Rigid Body, ref node=PART-4-2.PART-4-2-REFPT_, analytical surface=PART-4-2.PART-4-2-RIGIDSURFACE_
** Constraint: RigidBody-2
*Rigid Body, ref node=PART-4-1.PART-4-1-REFPT_, analytical surface=PART-4-1.PART-4-1-RIGIDSURFACE_
*End Assembly
** 
** ELEMENT CONTROLS
** 
*Section Controls, name=EC-1, hourglass=ENHANCED
1., 1., 1.
*Amplitude, name=COOL
             0.,              0.,             20.,              0.
*Amplitude, name=DISPLACMENT
             0.,             -0.,           0.025, 0.000246900879716674,            0.05, 0.00048770575499286,           0.075, 0.000722565136714471
            0.1, 0.000951625819640405,           0.125, 0.00117503097415405,            0.15, 0.00139292023574942,           0.175, 0.00160542979230793
            0.2, 0.00181269246922018,           0.225, 0.00201483781240623,            0.25, 0.00221199216928595,           0.275, 0.00240427876775032
            0.3, 0.00259181779318282,           0.325, 0.00277472646357928,            0.35, 0.00295311910281287,           0.375, 0.00312710721209028
            0.4, 0.00329679953964361,           0.425, 0.00346230214870153,            0.45, 0.00362371848378227,           0.475, 0.0037811494353498
            0.5, 0.00393469340287367
*Amplitude, name=POWER
             0., 127712533.860981,           0.005, 104211862581.102,           0.025, 104211862581.102,            0.03,              0.
           0.05,              0.,           0.055,              0.,           0.075,              0.,            0.08,              0.
            0.1,              0.,           0.105,              0.,           0.125,              0.,            0.13,              0.
           0.15,              0.,           0.155,              0.,           0.175,              0.,            0.18,              0.
            0.2,              0.,           0.205,              0.,           0.225,              0.,            0.23,              0.
           0.25,              0.,           0.255,              0.,           0.275,              0.,            0.28,              0.
            0.3,              0.,           0.305,              0.,           0.325,              0.,            0.33,              0.
           0.35,              0.,           0.355,              0.,           0.375,              0.,            0.38,              0.
            0.4,              0.,           0.405,              0.,           0.425,              0.,            0.43,              0.
           0.45,              0.,           0.455,              0.,           0.475,              0.,            0.48, 127712533.860981
            0.5, 127712533.860981
** 
** MATERIALS
** 
*Material, name=AL2O3
*Conductivity
25.,
*Density
3690.,
*Elastic
 3e+11, 0.21
*Specific Heat
880.,
*Material, name=H13
*Conductivity
 27.2, 20.
 27.8,100.
 28.4,200.
 28.6,300.
 29.2,400.
 29.8,500.
 30.3,600.
*Density
   7760., 20.
 7738.83,100.
 7710.84,200.
 7682.03,300.
 7652.53,400.
 7622.46,500.
 7591.94,600.
*Elastic
 2.07e+11, 0.3
*Specific Heat
560., 20.
582.,100.
593.,200.
598.,300.
601.,400.
608.,500.
618.,600.
**  Titanium Sample
*Material, name=MATERIAL
*Conductivity
  5.91,     20.
  5.91,  168.65
  6.26,  199.78
  7.43,  300.33
   8.6,  400.88
  9.79,  499.04
  9.79,  501.44
 11.03,  599.59
 11.33,  621.14
 11.56,  640.29
 11.83,  659.45
 12.13,  680.99
 12.35,  700.15
 12.65,  721.69
  12.9,  740.85
 13.17,    760.
 13.45,  779.15
 13.75,   800.7
 14.05,  819.85
 14.29,    839.
** ... 26 like lines cut
*Density
 4435.12,-270.
 4435.01,-265.
  4434.9,-260.
 4434.79,-255.
 4434.69,-250.
 4434.58,-245.
 4434.48,-240.
 4434.38,-235.
 4434.29,-230.
 4434.19,-225.
  4434.1,-220.
 4434.01,-215.
 4433.92,-210.
 4433.83,-205.
 4433.74,-200.
 4433.65,-195.
 4433.57,-190.
 4433.48,-185.
  4433.4,-180.
 4433.32,-175.
** ... 367 like lines cut
*Elastic
  1.0327e+11, 0.343923,      27.
 1.03095e+11, 0.342265,      50.
 1.01869e+11, 0.345166,     100.
 9.90887e+10, 0.347572,     150.
 9.76545e+10, 0.351007,     200.
 9.44234e+10, 0.354369,     250.
 9.14453e+10, 0.357805,     300.
 8.86248e+10,  0.36124,     350.
 8.68905e+10, 0.364602,     400.
 8.30365e+10, 0.368037,     450.
 8.12847e+10, 0.371473,     500.
 7.89197e+10, 0.374908,     550.
 7.54161e+10,  0.37827,     600.
 7.46044e+10, 0.381705,     650.
 7.27007e+10, 0.385141,     700.
 6.85839e+10, 0.388576,     750.
 6.59124e+10, 0.391938,     800.
 6.35508e+10, 0.395373,     850.
  6.1927e+10, 0.398736,     900.
  5.0469e+10, 0.413874,     950.
** ... 14 like lines cut
*Inelastic Heat Fraction
          1.,
*Plastic, rate=0.
 2.57021e+08,  0.,700.
 2.46221e+08, 0.0500267,      700.
 2.3542e+08, 0.10002,    700.
 2.27555e+08, 0.150078,     700.
 2.19158e+08, 0.2001,   700.
 2.11338e+08, 0.250088,     700.
 2.03388e+08, 0.300091,     700.
 1.95176e+08, 0.35006,    700.
 1.89128e+08, 0.400076,     700.
 1.89516e+08, 0.450033,     700.
 1.85299e+08, 0.500065,     700.
 1.81679e+08, 0.550043,     700.
 1.76859e+08, 0.600041,     700.
 1.74351e+08,  0.,750.
 1.62479e+08, 0.0500446,      750.
 1.50607e+08, 0.100142,     750.
 1.40688e+08, 0.150033,     750.
 1.34965e+08, 0.200086,     750.
 1.29938e+08, 0.250074,     750.
 1.24204e+08, 0.300039,     750.
** ... 75 like lines cut
*Plastic, rate=0.01
 3.24531e+08,  0.,700.
 3.29955e+08, 0.0500246,      700.
 3.35378e+08, 0.100066,     700.
 3.35212e+08, 0.150039,     700.
 3.31651e+08, 0.200013,     700.
 3.26381e+08, 0.250027,     700.
 3.19574e+08, 0.300011,     700.
 3.13485e+08, 0.350033,     700.
 3.06621e+08, 0.400009,     700.
 3.00001e+08, 0.450043,     700.
 2.94198e+08, 0.500008,     700.
 2.89931e+08, 0.550055,     700.
 2.86946e+08, 0.60005,    700.
 2.83324e+08, 0.650023,     700.
 2.53436e+08,  0.,750.
 2.45502e+08, 0.0500036,      750.
 2.37568e+08, 0.100069,     750.
 2.31274e+08, 0.150051,     750.
 2.24604e+08, 0.200052,     750.
 2.17773e+08, 0.250123,     750.
** ... 78 like lines cut
*Plastic, rate=0.1
 4.03377e+08,  0.,700.
 4.23292e+08, 0.0501813,      700.
 4.43206e+08, 0.100089,     700.
 4.47714e+08, 0.15002,    700.
 4.4326e+08, 0.20006,    700.
 4.32298e+08, 0.250203,     700.
 4.15272e+08, 0.300003,     700.
 3.97584e+08, 0.350078,     700.
 3.79467e+08, 0.40014,    700.
 3.61887e+08, 0.45005,    700.
 3.46281e+08, 0.500135,     700.
 3.36217e+08, 0.550053,     700.
 3.30592e+08, 0.60016,    700.
 3.33152e+08, 0.650095,     700.
 3.09865e+08,  0.,750.
 3.22127e+08, 0.0500383,      750.
 3.34389e+08, 0.100118,     750.
 3.38198e+08, 0.150078,     750.
 3.35791e+08, 0.200119,     750.
 3.29851e+08, 0.250074,     750.
** ... 78 like lines cut
*Plastic, rate=1.
 4.4678e+08,  0.,700.
 4.82416e+08, 0.0502423,      700.
 5.18052e+08, 0.100007,     700.
 5.34832e+08, 0.150214,     700.
 5.38514e+08, 0.200288,     700.
 5.31925e+08, 0.250145,     700.
 5.18972e+08, 0.300103,     700.
 5.02808e+08, 0.350082,     700.
 4.84954e+08, 0.40016,    700.
 4.70669e+08, 0.45013,    700.
 4.54229e+08, 0.500344,     700.
 4.45262e+08, 0.550079,     700.
 4.46918e+08, 0.600187,     700.
 4.62512e+08, 0.650115,     700.
 3.52991e+08,  0.,750.
 3.75002e+08, 0.0507871,      750.
 3.97014e+08, 0.101406,     750.
 4.09013e+08, 0.150771,     750.
 4.14048e+08, 0.200301,     750.
 4.12522e+08, 0.251017,     750.
** ... 77 like lines cut
*Specific Heat
    565.,     20.
  597.78,  149.99
    615.,   200.7
    640.,  300.04
  651.11,  400.42
  660.56,  500.79
  697.78,  600.13
  727.22,  620.83
  747.78,  640.49
  727.22,  660.15
  723.33,  680.85
  732.78,  700.51
  743.89,  720.17
  753.89,  740.87
  757.22,  760.53
  755.56,  780.19
  765.56,  800.89
    765.,  820.55
  792.22,  840.21
  811.67,   860.9
** ... 16 like lines cut
** 
** INTERACTION PROPERTIES
** 
*Surface Interaction, name=FRICTION
1.,
*Friction, slip tolerance=0.005
 0.5,
*Surface Behavior, pressure-overclosure=TABULAR
    0.,    0.
 1e+09, 1e-06
*Surface Interaction, name=MACHINE_PARTS_CONDUCTANCE
1.,
*Gap Conductance
10000.,    0.
    0., 0.001
*Surface Interaction, name=SAMPLE_PLATEN_CONDUCTANCE
1.,
*Gap Conductance
1500.,    0.
   0., 0.001
*Time Points, name=READOUT_TIMES
0., 0.025, 0.05, 0.075, 0.1, 0.125, 0.15, 0.175
0.2, 0.225, 0.25, 0.275, 0.3, 0.325, 0.35, 0.375
0.4, 0.425, 0.45, 0.475, 0.5
** 
** BOUNDARY CONDITIONS
** 
** Name: Disp-BC-1 Type: Symmetry/Antisymmetry/Encastre
*Boundary
MACHINE_BOTTOM, ENCASTRE
** Name: Disp-BC-2 Type: Displacement/Rotation
*Boundary
SAMPLE_MIDLINE, 1, 1
** Name: Disp-BC-3 Type: Displacement/Rotation
*Boundary
MACHINE_TOP, 1, 1
** Name: Disp-BC-4 Type: Displacement/Rotation
*Boundary
MACHINE_TOP, 2, 2
** Name: Disp-BC-5 Type: Displacement/Rotation
*Boundary
MACHINE_TOP, 3, 3
** Name: Disp-BC-6 Type: Displacement/Rotation
*Boundary
MACHINE_TOP, 4, 4
** Name: Disp-BC-7 Type: Displacement/Rotation
*Boundary
MACHINE_TOP, 5, 5
** Name: Disp-BC-8 Type: Displacement/Rotation
*Boundary
MACHINE_TOP, 6, 6
** 
** PREDEFINED FIELDS
** 
** Name: Field-1   Type: Temperature
*Initial Conditions, type=TEMPERATURE
SET-12, 20.
** Name: Predefined Field-2   Type: Temperature
*Initial Conditions, type=TEMPERATURE, file=/net/scratch2/w10944rb/800C_heatup32.odb, step=1, inc=0, interpolate
** 
** INTERACTIONS
** 
** Interaction: FRICTION-1
*Contact Pair, interaction=FRICTION, type=SURFACE TO SURFACE
_PICKEDSURF36, PART-4-2.PART-4-2-RIGIDSURFACE_
** Interaction: FRICTION-2
*Contact Pair, interaction=FRICTION, type=SURFACE TO SURFACE
_PICKEDSURF38, PART-4-1.PART-4-1-RIGIDSURFACE_
** Interaction: FRICTION-3
*Contact Pair, interaction=FRICTION, type=SURFACE TO SURFACE
_PICKEDSURF40, PART-4-2.PART-4-2-RIGIDSURFACE_
** Interaction: FRICTION-4
*Contact Pair, interaction=FRICTION, type=SURFACE TO SURFACE
_PICKEDSURF42, PART-4-1.PART-4-1-RIGIDSURFACE_
** Interaction: MACHINE_PARTS_CONDUCTANCE-1
*Contact Pair, interaction=MACHINE_PARTS_CONDUCTANCE, type=SURFACE TO SURFACE
_PICKEDSURF95, _PICKEDSURF94
** Interaction: MACHINE_PARTS_CONDUCTANCE-2
*Contact Pair, interaction=MACHINE_PARTS_CONDUCTANCE, type=SURFACE TO SURFACE
_PICKEDSURF97, _PICKEDSURF96
** Interaction: MACHINE_PARTS_CONDUCTANCE-3
*Contact Pair, interaction=MACHINE_PARTS_CONDUCTANCE, type=SURFACE TO SURFACE
_PICKEDSURF99, _PICKEDSURF98
** Interaction: MACHINE_PARTS_CONDUCTANCE-4
*Contact Pair, interaction=MACHINE_PARTS_CONDUCTANCE, type=SURFACE TO SURFACE
_PICKEDSURF101, _PICKEDSURF100
** Interaction: SAMPLE_PLATEN_CONDUCTANCE-1
*Contact Pair, interaction=SAMPLE_PLATEN_CONDUCTANCE, type=SURFACE TO SURFACE
_PICKEDSURF79, _PICKEDSURF78
** Interaction: SAMPLE_PLATEN_CONDUCTANCE-2
*Contact Pair, interaction=SAMPLE_PLATEN_CONDUCTANCE, type=SURFACE TO SURFACE
_PICKEDSURF81, _PICKEDSURF80
** ----------------------------------------------------------------
** 
** STEP: deform
** 
*Step, name=deform, nlgeom=YES, inc=1000
*Coupled Temperature-displacement, creep=none, deltmx=1000.
0.005, 0.475, 5e-06, 0.005
** 
** BOUNDARY CONDITIONS
** 
** Name: Disp-BC-1 Type: Symmetry/Antisymmetry/Encastre
*Boundary, op=NEW
MACHINE_BOTTOM, ENCASTRE
** Name: Disp-BC-2 Type: Displacement/Rotation
*Boundary, op=NEW
SAMPLE_MIDLINE, 1, 1
** Name: Disp-BC-3 Type: Displacement/Rotation
*Boundary, op=NEW
** Name: Disp-BC-4 Type: Displacement/Rotation
*Boundary, op=NEW
** Name: Disp-BC-5 Type: Displacement/Rotation
*Boundary, op=NEW
** Name: Disp-BC-6 Type: Displacement/Rotation
*Boundary, op=NEW
** Name: Disp-BC-7 Type: Displacement/Rotation
*Boundary, op=NEW
** Name: Disp-BC-8 Type: Displacement/Rotation
*Boundary, op=NEW
** Name: Disp-BC-9 Type: Displacement/Rotation
*Boundary, op=NEW, amplitude=DISPLACMENT
MACHINE_TOP, 1, 1
** Name: Disp-BC-10 Type: Displacement/Rotation
*Boundary, op=NEW, amplitude=DISPLACMENT
MACHINE_TOP, 2, 2, -1.
** Name: Disp-BC-11 Type: Displacement/Rotation
*Boundary, op=NEW, amplitude=DISPLACMENT
MACHINE_TOP, 3, 3
** Name: Disp-BC-12 Type: Displacement/Rotation
*Boundary, op=NEW, amplitude=DISPLACMENT
MACHINE_TOP, 4, 4
** Name: Disp-BC-13 Type: Displacement/Rotation
*Boundary, op=NEW, amplitude=DISPLACMENT
MACHINE_TOP, 5, 5
** Name: Disp-BC-14 Type: Displacement/Rotation
*Boundary, op=NEW, amplitude=DISPLACMENT
MACHINE_TOP, 6, 6
** 
** LOADS
** 
** Name: BODYFLUX-1   Type: Body heat flux
*Dflux, amplitude=POWER
VOLUME, BF, 1.
** Name: SURFFLUX-1   Type: Surface heat flux
*Dsflux, amplitude=COOL
SAMPLE_SURFACE, S, 0.00125
** 
** INTERACTIONS
** 
** Interaction: SURFFILM-1
*Sfilm
_PICKEDSURF112, F, 25., 0.
** 
** OUTPUT REQUESTS
** 
*Restart, write, frequency=0
** 
** FIELD OUTPUT: F-Output-3
** 
*Output, field, time points=READOUT_TIMES
*Contact Output
CDISP, CSTRESS
** 
** FIELD OUTPUT: F-Output-1
** 
*Node Output
CF, NT, RF, RFL, RFLE, U
** 
** FIELD OUTPUT: F-Output-2
** 
*Element Output, directions=YES
EEQUT, ER, FLUXS, HBF, HFL, LE, MVF, PE, PEEQ, PEMAG, S, SEQUT, TE, TEEQ, TEVOL
** 
** HISTORY OUTPUT: H-Output-1
** 
*Output, history, time points=READOUT_TIMES
*Energy Output
ALLPD, 
** 
** HISTORY OUTPUT: H-Output-2
** 
*Node Output, nset=CENTRAL_THERMOCOUPLE
NT, 
** 
** HISTORY OUTPUT: H-Output-3
** 
*Node Output, nset=OFF_CENTRE_THERMOCOUPLE
NT, 
** 
** HISTORY OUTPUT: H-Output-4
** 
*Node Output, nset=PLATEN_REFERENCE_POINT
U2, 
** 
** HISTORY OUTPUT: H-Output-5
** 
*Node Output, nset=SAMPLE_MIDPOINT
NT, 
** 
** HISTORY OUTPUT: H-Output-6
** 
*Contact Output, nset=SAMPLE_TOP
CFN2, 
*End Step
